data_image0
_chemical_formula_structural       C60
_chemical_formula_sum              "C60"
_cell_length_a       10.946188198548931
_cell_length_b       10.946188198548931
_cell_length_c       10.946188198548931
_cell_angle_alpha    90.0
_cell_angle_beta     90.0
_cell_angle_gamma    90.0

_space_group_name_H-M_alt    "P 1"
_space_group_IT_number       1

loop_
  _space_group_symop_operation_xyz
  'x, y, z'

loop_
  _atom_site_type_symbol
  _atom_site_label
  _atom_site_symmetry_multiplicity
  _atom_site_fract_x
  _atom_site_fract_y
  _atom_site_fract_z
  _atom_site_occupancy
  C   C1        1.0  0.07985203937747225  0.002458015542729911  0.06539545051594986  1.0000
  C   C2        1.0  0.022804254925533587  0.02280425492552616  0.05223833638123725  1.0000
  C   C3        1.0  0.0024580155427166373  0.06539545051596198  0.0798520393774577  1.0000
  C   C4        1.0  0.04311255621263055  0.08376800262266014  0.05895364223938504  1.0000
  C   C5        1.0  0.06539545051595921  0.002458015542727828  0.07985203937745056  1.0000
  C   C6        1.0  0.048243446613317885  0.0075880002032883195  0.03240236058656341  1.0000
  C   C7        1.0  0.022804254925538336  0.052238336381290953  0.02280425492547396  1.0000
  C   C8        1.0  0.08376800262266128  0.05895364223939809  0.04311255621263074  1.0000
  C   C9        1.0  0.08116430006549673  0.05758608058441934  0.017929180033874153  1.0000
  C   C10       1.0  0.05223833638131022  0.022804254925525767  0.022804254925468826  1.0000
  C   C11       1.0  0.017929180033887902  0.08116430006548574  0.05758608058441052  1.0000
  C   C12       1.0  0.07227296063115259  0.08636719414264103  0.04166954667517727  1.0000
  C   C13       1.0  0.06727294949023883  0.06727294949023233  0.02798104328374125  1.0000
  C   C14       1.0  0.02798104328382955  0.06727294949023487  0.0672729494901689  1.0000
  C   C15       1.0  0.05895364223941567  0.04311255621263971  0.08376800262264254  1.0000
  C   C16       1.0  0.007588000203297628  0.048243446613309995  0.03240236058656285  1.0000
  C   C17       1.0  0.08889798728323181  0.025960552309986513  0.011503963448490804  1.0000
  C   C18       1.0  0.04968645615077342  0.004988808683300275  0.019083042194780946  1.0000
  C   C19       1.0  0.019083042194795872  0.004988808683307428  0.0496864561507712  1.0000
  C   C20       1.0  0.08889798728322551  0.011503963448484747  0.025960552309987218  1.0000
  C   C21       1.0  0.0324023605865343  0.007588000203288  0.048243446613328404  1.0000
  C   C22       1.0  0.08636719414264803  0.041669546675176666  0.07227296063116372  1.0000
  C   C23       1.0  0.04166954667517506  0.08636719414264821  0.07227296063116753  1.0000
  C   C24       1.0  0.0672729494902485  0.02798104328380486  0.06727294949017591  1.0000
  C   C25       1.0  0.05895364223941419  0.08376800262266042  0.043112556212620015  1.0000
  C   C26       1.0  0.011503963448476213  0.08889798728321854  0.025960552309998608  1.0000
  C   C27       1.0  0.05758608058442651  0.017929180033893155  0.08116430006545995  1.0000
  C   C28       1.0  0.025960552309977618  0.011503963448486546  0.08889798728322676  1.0000
  C   C29       1.0  0.01792918003388645  0.05758608058442111  0.08116430006547112  1.0000
  C   C30       1.0  0.06337495954211891  0.024083053335713582  0.024083053335779578  1.0000
  C   C31       1.0  0.06855174790041013  0.03911766644465748  0.06855174790047452  1.0000
  C   C32       1.0  0.0024580155427229864  0.0798520393774637  0.06539545051596125  1.0000
  C   C33       1.0  0.0837680026226508  0.04311255621263847  0.05895364223938564  1.0000
  C   C34       1.0  0.04824344661330599  0.03240236058654942  0.007588000203295755  1.0000
  C   C35       1.0  0.004988808683305308  0.019083042194795015  0.04968645615077276  1.0000
  C   C36       1.0  0.0391176664446383  0.06855174790042269  0.06855174790047962  1.0000
  C   C37       1.0  0.06855174790041486  0.06855174790042232  0.039117666444711194  1.0000
  C   C38       1.0  0.041669546675172114  0.07227296063115919  0.0863671941426535  1.0000
  C   C39       1.0  0.07985203937747756  0.06539545051596227  0.00245801554271745  1.0000
  C   C40       1.0  0.024083053335700016  0.06337495954214363  0.024083053335772514  1.0000
  C   C41       1.0  0.004988808683300457  0.049686456150771795  0.0190830421947848  1.0000
  C   C42       1.0  0.08636719414264318  0.07227296063115347  0.041669546675175737  1.0000
  C   C43       1.0  0.0324023605865328  0.048243446613308726  0.007588000203305906  1.0000
  C   C44       1.0  0.0240830533357096  0.02408305333571612  0.0633749595422072  1.0000
  C   C45       1.0  0.04311255621264251  0.05895364223939905  0.08376800262265272  1.0000
  C   C46       1.0  0.07342682279206054  0.01019170276046271  0.03376992224153798  1.0000
  C   C47       1.0  0.00758800020328716  0.03240236058655035  0.048243446613317725  1.0000
  C   C48       1.0  0.08116430006549004  0.017929180033895833  0.05758608058440057  1.0000
  C   C49       1.0  0.025960552309989317  0.08889798728322065  0.011503963448497894  1.0000
  C   C50       1.0  0.019083042194793974  0.04968645615077322  0.004988808683297305  1.0000
  C   C51       1.0  0.010191702760458454  0.07342682279205265  0.03376992224154793  1.0000
  C   C52       1.0  0.057586080584434624  0.0811643000654813  0.01792918003387293  1.0000
  C   C53       1.0  0.033769922241513796  0.010191702760467197  0.07342682279207552  1.0000
  C   C54       1.0  0.01150396344847088  0.025960552309986187  0.08889798728323099  1.0000
  C   C55       1.0  0.07342682279206203  0.03376992224152736  0.010191702760477346  1.0000
  C   C56       1.0  0.07227296063115446  0.04166954667517527  0.08636719414265118  1.0000
  C   C57       1.0  0.06539545051597087  0.07985203937746196  0.0024580155427217166  1.0000
  C   C58       1.0  0.04968645615077641  0.01908304219478925  0.004988808683294994  1.0000
  C   C59       1.0  0.010191702760451738  0.03376992224152916  0.0734268227920743  1.0000
  C   C60       1.0  0.03376992224152196  0.07342682279205534  0.01019170276048852  1.0000
