data_image0
_chemical_formula_structural       K8N4Cl4O12
_chemical_formula_sum              "K8 N4 Cl4 O12"
_cell_length_a       10.960669058657855
_cell_length_b       10.960669058657855
_cell_length_c       10.960669058657855
_cell_angle_alpha    90.0
_cell_angle_beta     90.0
_cell_angle_gamma    90.0

_space_group_name_H-M_alt    "P 1"
_space_group_IT_number       1

loop_
  _space_group_symop_operation_xyz
  'x, y, z'

loop_
  _atom_site_type_symbol
  _atom_site_label
  _atom_site_symmetry_multiplicity
  _atom_site_fract_x
  _atom_site_fract_y
  _atom_site_fract_z
  _atom_site_occupancy
  K   K1        1.0  0.02280882660192395  0.04382346796152104  0.017944495022063967  1.0000
  K   K2        1.0  0.02280882660192395  0.08944112116536898  0.02767315818178395  1.0000
  K   K3        1.0  0.06842647980577185  0.07641984244002022  0.008674086120237371  1.0000
  K   K4        1.0  0.02280882660192395  0.06043311717152348  0.05429173932408527  1.0000
  K   K5        1.0  0.06842647980577185  0.04741183844617471  0.07329081138563184  1.0000
  K   K6        1.0  0.06842647980577185  0.0017941852423268639  0.06356214822591186  1.0000
  K   K7        1.0  0.02280882660192395  0.014815463967675593  0.08256122028745842  1.0000
  K   K8        1.0  0.06842647980577185  0.030802189236172343  0.03694356708361051  1.0000
  N   N1        1.0  0.06842647980577185  0.0878585453196995  0.037013593198975986  1.0000
  N   N2        1.0  0.02280882660192395  0.04899441429184419  0.0826312464028239  1.0000
  N   N3        1.0  0.02280882660192395  0.0033767610879962837  0.05422171320871979  1.0000
  N   N4        1.0  0.06842647980577185  0.04224089211585163  0.008604060004871919  1.0000
  Cl  Cl1       1.0  0.02280882660192395  0.06608339740914662  0.08405220244597851  1.0000
  Cl  Cl2       1.0  0.02280882660192395  0.020465744205298696  0.052800757165565176  1.0000
  Cl  Cl3       1.0  0.06842647980577185  0.07076956220239707  0.038434549242130626  1.0000
  Cl  Cl4       1.0  0.06842647980577185  0.025151908998549202  0.007183103961717285  1.0000
  O   O1        1.0  0.06842647980577185  0.018789008889282467  0.08530468637700334  1.0000
  O   O2        1.0  0.0034625799926599355  0.029089019565608044  0.05840415134683231  1.0000
  O   O3        1.0  0.04215507321118794  0.07470667276945597  0.07844880826471139  1.0000
  O   O4        1.0  0.02280882660192395  0.0724462975184133  0.005930620030692428  1.0000
  O   O5        1.0  0.08777272641503588  0.06214628684208773  0.03283115506086345  1.0000
  O   O6        1.0  0.02280882660192395  0.026828644314565404  0.039687033173155487  1.0000
  O   O7        1.0  0.08777272641503588  0.016528633638239847  0.01278649814298447  1.0000
  O   O8        1.0  0.04908023319650781  0.06214628684208773  0.03283115506086345  1.0000
  O   O9        1.0  0.06842647980577185  0.06440666209313038  0.05154827323454036  1.0000
  O   O10       1.0  0.0034625799926599355  0.07470667276945597  0.07844880826471139  1.0000
  O   O11       1.0  0.04908023319650781  0.016528633638239847  0.01278649814298447  1.0000
  O   O12       1.0  0.04215507321118794  0.029089019565608044  0.05840415134683231  1.0000
