data_image0
_chemical_formula_structural       Re2
_chemical_formula_sum              "Re2"
_cell_length_a       10.5
_cell_length_b       10.5
_cell_length_c       10.5
_cell_angle_alpha    90.0
_cell_angle_beta     90.0
_cell_angle_gamma    90.0

_space_group_name_H-M_alt    "P 1"
_space_group_IT_number       1

loop_
  _space_group_symop_operation_xyz
  'x, y, z'

loop_
  _atom_site_type_symbol
  _atom_site_label
  _atom_site_symmetry_multiplicity
  _atom_site_fract_x
  _atom_site_fract_y
  _atom_site_fract_z
  _atom_site_occupancy
  Re  Re1       1.0  0.0317460000000003  0.06349209523809493  0.023809523809523808  1.0000
  Re  Re2       1.0  0.06349209523809493  0.0317460000000003  0.07142857142857142  1.0000
